data/sourcebus_11000.trafo_75592323_75592323/Loads.dss
New Load.75601827_nmi_elem_75601827 bus1=3097707.3 kV=0.23094010767585033 Vminpu=0.7 Vmaxpu=1.3 model=1 kW=0.0 kvar=0.0 Phases=1
New Load.75601828_nmi_elem_75601828 bus1=3094792.1 kV=0.23094010767585033 Vminpu=0.7 Vmaxpu=1.3 model=1 kW=0.0 kvar=0.0 Phases=1
New Load.75601843_nmi_elem_75601843 bus1=3100588.2 kV=0.23094010767585033 Vminpu=0.7 Vmaxpu=1.3 model=1 kW=0.0 kvar=0.0 Phases=1
New Load.75601845_nmi_elem_75601845 bus1=3095063.2 kV=0.23094010767585033 Vminpu=0.7 Vmaxpu=1.3 model=1 kW=0.0 kvar=0.0 Phases=1
New Load.75601846_nmi_elem_75601846 bus1=3100590.3 kV=0.23094010767585033 Vminpu=0.7 Vmaxpu=1.3 model=1 kW=0.0 kvar=0.0 Phases=1
New Load.75601850_nmi_elem_75601850 bus1=3100592.1 kV=0.23094010767585033 Vminpu=0.7 Vmaxpu=1.3 model=1 kW=0.0 kvar=0.0 Phases=1
New Load.75601904_nmi_elem_75601904 bus1=3096428.2 kV=0.23094010767585033 Vminpu=0.7 Vmaxpu=1.3 model=1 kW=0.0 kvar=0.0 Phases=1
New Load.75601906_nmi_elem_75601906 bus1=3094794.3 kV=0.23094010767585033 Vminpu=0.7 Vmaxpu=1.3 model=1 kW=0.0 kvar=0.0 Phases=1
New Load.75601911_nmi_elem_75601911 bus1=3095058.1 kV=0.23094010767585033 Vminpu=0.7 Vmaxpu=1.3 model=1 kW=0.0 kvar=0.0 Phases=1
New Load.75601912_nmi_elem_75601912 bus1=3095057.2 kV=0.23094010767585033 Vminpu=0.7 Vmaxpu=1.3 model=1 kW=0.0 kvar=0.0 Phases=1
New Load.75601915_nmi_elem_75601915 bus1=3096808.2 kV=0.23094010767585033 Vminpu=0.7 Vmaxpu=1.3 model=1 kW=0.0 kvar=0.0 Phases=1
New Load.75601922_nmi_elem_75601922 bus1=3096727.3 kV=0.23094010767585033 Vminpu=0.7 Vmaxpu=1.3 model=1 kW=0.0 kvar=0.0 Phases=1
New Load.75606138_nmi_elem_75606138 bus1=3101021.1 kV=0.23094010767585033 Vminpu=0.7 Vmaxpu=1.3 model=1 kW=0.0 kvar=0.0 Phases=1
New Load.75606423_nmi_elem_75606423 bus1=3101126.3 kV=0.23094010767585033 Vminpu=0.7 Vmaxpu=1.3 model=1 kW=0.0 kvar=0.0 Phases=1
New Load.NMI_elem_75594086 bus1=3096670.3 kV=0.23094010767585033 Vminpu=0.7 Vmaxpu=1.3 model=1 kW=1.9234660644447457 kvar=0.3905764428211092 Phases=1
New Load.NMI_elem_75594087 bus1=3097213.3 kV=0.23094010767585033 Vminpu=0.7 Vmaxpu=1.3 model=1 kW=1.1755799723358744 kvar=0.23871169465068234 Phases=1
New Load.NMI_elem_75594088 bus1=3096568.1 kV=0.23094010767585033 Vminpu=0.7 Vmaxpu=1.3 model=1 kW=3.2678118099074456 kvar=0.663557489323787 Phases=1
New Load.NMI_elem_75594089 bus1=3095053.1 kV=0.23094010767585033 Vminpu=0.7 Vmaxpu=1.3 model=1 kW=2.228631514632377 kvar=0.4525429304079826 Phases=1
New Load.NMI_elem_75594090 bus1=3100575.1 kV=0.23094010767585033 Vminpu=0.7 Vmaxpu=1.3 model=1 kW=2.2471263636769616 kvar=0.45629846968360405 Phases=1
New Load.NMI_elem_75594091 bus1=3097707.3 kV=0.23094010767585033 Vminpu=0.7 Vmaxpu=1.3 model=1 kW=1.4518470830938475 kvar=0.29481012413842245 Phases=1
New Load.NMI_elem_75594092 bus1=3094792.1 kV=0.23094010767585033 Vminpu=0.7 Vmaxpu=1.3 model=1 kW=5.973841973776652 kvar=1.213040350034283 Phases=1
New Load.NMI_elem_75594093 bus1=3100576.3 kV=0.23094010767585033 Vminpu=0.7 Vmaxpu=1.3 model=1 kW=2.7164335440162843 kvar=0.551595357149228 Phases=1
New Load.NMI_elem_75594094 bus1=3097691.3 kV=0.23094010767585033 Vminpu=0.7 Vmaxpu=1.3 model=1 kW=2.2078247543382212 kvar=0.4483179375305185 Phases=1
New Load.NMI_elem_75594095 bus1=3100577.2 kV=0.23094010767585033 Vminpu=0.7 Vmaxpu=1.3 model=1 kW=0.3433109661040917 kvar=0.06971226495806286 Phases=1
New Load.NMI_elem_75594096 bus1=3100578.2 kV=0.23094010767585033 Vminpu=0.7 Vmaxpu=1.3 model=1 kW=2.9221890152322803 kvar=0.5933757875524664 Phases=1
New Load.NMI_elem_75594097 bus1=3100579.2 kV=0.23094010767585033 Vminpu=0.7 Vmaxpu=1.3 model=1 kW=2.5176138065490035 kvar=0.5112232875515175 Phases=1
New Load.NMI_elem_75594098 bus1=3100580.2 kV=0.23094010767585033 Vminpu=0.7 Vmaxpu=1.3 model=1 kW=1.488836781183017 kvar=0.3023212026896654 Phases=1
New Load.NMI_elem_75594099 bus1=3097256.2 kV=0.23094010767585033 Vminpu=0.7 Vmaxpu=1.3 model=1 kW=0.10518955728919677 kvar=0.02135965061582815 Phases=1
New Load.NMI_elem_75594100 bus1=3100581.3 kV=0.23094010767585033 Vminpu=0.7 Vmaxpu=1.3 model=1 kW=1.8968797465026541 kvar=0.38517786070859833 Phases=1
New Load.NMI_elem_75594101 bus1=3100582.3 kV=0.23094010767585033 Vminpu=0.7 Vmaxpu=1.3 model=1 kW=2.703718252619636 kvar=0.5490134071086534 Phases=1
New Load.NMI_elem_75594102 bus1=3100583.3 kV=0.23094010767585033 Vminpu=0.7 Vmaxpu=1.3 model=1 kW=3.5475466773017788 kvar=0.7203600768295111 Phases=1
New Load.NMI_elem_75594103 bus1=3100584.3 kV=0.23094010767585033 Vminpu=0.7 Vmaxpu=1.3 model=1 kW=1.2645864609224373 kvar=0.2567852330108056 Phases=1
New Load.NMI_elem_75594104 bus1=3100585.3 kV=0.23094010767585033 Vminpu=0.7 Vmaxpu=1.3 model=1 kW=1.382491288938659 kvar=0.28072682947006217 Phases=1
New Load.NMI_elem_75594105 bus1=3100586.3 kV=0.23094010767585033 Vminpu=0.7 Vmaxpu=1.3 model=1 kW=0.27048741531254233 kvar=0.054924812271718484 Phases=1
New Load.NMI_elem_75594106 bus1=3100587.2 kV=0.23094010767585033 Vminpu=0.7 Vmaxpu=1.3 model=1 kW=2.265621212721547 kvar=0.46005400895922555 Phases=1
New Load.NMI_elem_75594107 bus1=3100588.2 kV=0.23094010767585033 Vminpu=0.7 Vmaxpu=1.3 model=1 kW=2.9765176067412487 kvar=0.6044076785784095 Phases=1
New Load.NMI_elem_75594108 bus1=3100589.3 kV=0.23094010767585033 Vminpu=0.7 Vmaxpu=1.3 model=1 kW=0.4068870648138495 kvar=0.08262194241040154 Phases=1
New Load.NMI_elem_75594109 bus1=3095063.2 kV=0.23094010767585033 Vminpu=0.7 Vmaxpu=1.3 model=1 kW=3.5406109435530664 kvar=0.7189517160239833 Phases=1
New Load.NMI_elem_75594110 bus1=3100590.3 kV=0.23094010767585033 Vminpu=0.7 Vmaxpu=1.3 model=1 kW=4.545113451988537 kvar=0.9229246499903876 Phases=1
New Load.NMI_elem_75594111 bus1=3100591.1 kV=0.23094010767585033 Vminpu=0.7 Vmaxpu=1.3 model=1 kW=2.6181795206694334 kvar=0.5316440267665142 Phases=1
New Load.NMI_elem_75594112 bus1=3097669.3 kV=0.23094010767585033 Vminpu=0.7 Vmaxpu=1.3 model=1 kW=2.591593202727342 kvar=0.5262454446540034 Phases=1
New Load.NMI_elem_75594113 bus1=3096149.1 kV=0.23094010767585033 Vminpu=0.7 Vmaxpu=1.3 model=1 kW=2.111882642240942 kvar=0.42883606074964736 Phases=1
New Load.NMI_elem_75594114 bus1=3100592.1 kV=0.23094010767585033 Vminpu=0.7 Vmaxpu=1.3 model=1 kW=5.099959364278061 kvar=1.0355909177981506 Phases=1
New Load.NMI_elem_75594144 bus1=3097688.2 kV=0.23094010767585033 Vminpu=0.7 Vmaxpu=1.3 model=1 kW=4.791326488168056 kvar=0.9729203393476324 Phases=1
New Load.NMI_elem_75594145 bus1=3096491.3 kV=0.23094010767585033 Vminpu=0.7 Vmaxpu=1.3 model=1 kW=6.841944584675324 kvar=1.3893161034962493 Phases=1
New Load.NMI_elem_75594146 bus1=3096097.1 kV=0.23094010767585033 Vminpu=0.7 Vmaxpu=1.3 model=1 kW=1.8726053398101334 kvar=0.38024873219793 Phases=1
New Load.NMI_elem_75594147 bus1=3098209.3 kV=0.23094010767585033 Vminpu=0.7 Vmaxpu=1.3 model=1 kW=1.6113652112223888 kvar=0.3272016615830475 Phases=1
New Load.NMI_elem_75594154 bus1=3100619.3 kV=0.23094010767585033 Vminpu=0.7 Vmaxpu=1.3 model=1 kW=1.3605286832577133 kvar=0.2762671321764566 Phases=1
New Load.NMI_elem_75594155 bus1=3096754.3 kV=0.23094010767585033 Vminpu=0.7 Vmaxpu=1.3 model=1 kW=0.6276695182000726 kvar=0.12745373168649743 Phases=1
New Load.NMI_elem_75594156 bus1=3096490.1.2.3 kV=0.4 Vminpu=0.7 Vmaxpu=1.3 model=1 kW=3.095578390382256 kvar=0.6285840018385873 Phases=3
New Load.NMI_elem_75594157 bus1=3100620.2 kV=0.23094010767585033 Vminpu=0.7 Vmaxpu=1.3 model=1 kW=1.9743270095553498 kvar=0.40090419821384815 Phases=1
New Load.NMI_elem_75594158 bus1=3100621.3 kV=0.23094010767585033 Vminpu=0.7 Vmaxpu=1.3 model=1 kW=2.400864934157567 kvar=0.48751641789318223 Phases=1
New Load.NMI_elem_75594159 bus1=3100622.3 kV=0.23094010767585033 Vminpu=0.7 Vmaxpu=1.3 model=1 kW=3.4157706022641237 kvar=0.6936018035287588 Phases=1
New Load.NMI_elem_75594160 bus1=3100623.1 kV=0.23094010767585033 Vminpu=0.7 Vmaxpu=1.3 model=1 kW=5.761150989287937 kvar=1.1698516035950766 Phases=1
New Load.NMI_elem_75594161 bus1=3100624.1 kV=0.23094010767585033 Vminpu=0.7 Vmaxpu=1.3 model=1 kW=2.732616481811299 kvar=0.554881442823007 Phases=1
New Load.NMI_elem_75594162 bus1=3100625.1 kV=0.23094010767585033 Vminpu=0.7 Vmaxpu=1.3 model=1 kW=1.9373373114661803 kvar=0.3933931196626051 Phases=1
New Load.NMI_elem_75594163 bus1=3100626.2 kV=0.23094010767585033 Vminpu=0.7 Vmaxpu=1.3 model=1 kW=6.245485151797488 kvar=1.268199849933558 Phases=1
New Load.NMI_elem_75594164 bus1=3100627.2 kV=0.23094010767585033 Vminpu=0.7 Vmaxpu=1.3 model=1 kW=1.6460431082999833 kvar=0.3342433089172277 Phases=1
New Load.NMI_elem_75594165 bus1=3097350.1 kV=0.23094010767585033 Vminpu=0.7 Vmaxpu=1.3 model=1 kW=2.278336283642204 kvar=0.46263591423024053 Phases=1
New Load.NMI_elem_75594166 bus1=3094795.3 kV=0.23094010767585033 Vminpu=0.7 Vmaxpu=1.3 model=1 kW=3.1510629375160097 kvar=0.6398506196654518 Phases=1
New Load.NMI_elem_75594167 bus1=3096429.2 kV=0.23094010767585033 Vminpu=0.7 Vmaxpu=1.3 model=1 kW=2.343068475774242 kvar=0.47578034646447526 Phases=1
New Load.NMI_elem_75594168 bus1=3096428.2 kV=0.23094010767585033 Vminpu=0.7 Vmaxpu=1.3 model=1 kW=4.116263836612738 kvar=0.8358430214787702 Phases=1
New Load.NMI_elem_75594169 bus1=3095985.1 kV=0.23094010767585033 Vminpu=0.7 Vmaxpu=1.3 model=1 kW=0.8507638828358666 kvar=0.17275497456443592 Phases=1
New Load.NMI_elem_75594170 bus1=3094794.3 kV=0.23094010767585033 Vminpu=0.7 Vmaxpu=1.3 model=1 kW=3.8631150666845047 kvar=0.7844389713159973 Phases=1
New Load.NMI_elem_75594171 bus1=3096697.1 kV=0.23094010767585033 Vminpu=0.7 Vmaxpu=1.3 model=1 kW=1.5003960067168847 kvar=0.30466840354453895 Phases=1
New Load.NMI_elem_75594172 bus1=3100628.1 kV=0.23094010767585033 Vminpu=0.7 Vmaxpu=1.3 model=1 kW=1.5639721329861414 kvar=0.3175780865930725 Phases=1
New Load.NMI_elem_75594173 bus1=3100629.1 kV=0.23094010767585033 Vminpu=0.7 Vmaxpu=1.3 model=1 kW=1.6287042148801838 kvar=0.3307224964425275 Phases=1
New Load.NMI_elem_75594174 bus1=3100630.1 kV=0.23094010767585033 Vminpu=0.7 Vmaxpu=1.3 model=1 kW=2.6262709895669407 kvar=0.5332870696034037 Phases=1
New Load.NMI_elem_75594175 bus1=3095058.1 kV=0.23094010767585033 Vminpu=0.7 Vmaxpu=1.3 model=1 kW=4.088521342569871 kvar=0.8302096677957785 Phases=1
New Load.NMI_elem_75594176 bus1=3095057.2 kV=0.23094010767585033 Vminpu=0.7 Vmaxpu=1.3 model=1 kW=3.9879556284494395 kvar=0.8097889285807816 Phases=1
New Load.NMI_elem_75594177 bus1=3100631.2 kV=0.23094010767585033 Vminpu=0.7 Vmaxpu=1.3 model=1 kW=1.7500767995327662 kvar=0.3553682509197682 Phases=1
New Load.NMI_elem_75594178 bus1=3100632.2 kV=0.23094010767585033 Vminpu=0.7 Vmaxpu=1.3 model=1 kW=2.0656455196294794 kvar=0.41944721256059364 Phases=1
New Load.NMI_elem_75594179 bus1=3096808.2 kV=0.23094010767585033 Vminpu=0.7 Vmaxpu=1.3 model=1 kW=1.1362783629971343 kvar=0.2307311624975969 Phases=1
New Load.NMI_elem_75594180 bus1=3100633.3 kV=0.23094010767585033 Vminpu=0.7 Vmaxpu=1.3 model=1 kW=2.896758432438982 kvar=0.5882118874713173 Phases=1
New Load.NMI_elem_75594181 bus1=3100634.3 kV=0.23094010767585033 Vminpu=0.7 Vmaxpu=1.3 model=1 kW=1.7373615081361176 kvar=0.35278630087919355 Phases=1
New Load.NMI_elem_75594182 bus1=3100635.3 kV=0.23094010767585033 Vminpu=0.7 Vmaxpu=1.3 model=1 kW=2.7002506062212714 kvar=0.5483092714754493 Phases=1
New Load.NMI_elem_75594183 bus1=3095907.1 kV=0.23094010767585033 Vminpu=0.7 Vmaxpu=1.3 model=1 kW=4.439923915368963 kvar=0.9015650035717053 Phases=1
New Load.NMI_elem_75594184 bus1=3100636.2 kV=0.23094010767585033 Vminpu=0.7 Vmaxpu=1.3 model=1 kW=2.777697869273967 kvar=0.5640356089806989 Phases=1
New Load.NMI_elem_75594185 bus1=3100637.3 kV=0.23094010767585033 Vminpu=0.7 Vmaxpu=1.3 model=1 kW=3.275903278804952 kvar=0.6652005321606764 Phases=1
New Load.NMI_elem_75594186 bus1=3096727.3 kV=0.23094010767585033 Vminpu=0.7 Vmaxpu=1.3 model=1 kW=4.728906207285589 kvar=0.9602453607152401 Phases=1
New Load.NMI_elem_75594187 bus1=3100638.3 kV=0.23094010767585033 Vminpu=0.7 Vmaxpu=1.3 model=1 kW=2.31879384860573 kvar=0.4708511731842474 Phases=1
New Load.NMI_elem_75594188 bus1=3097041.3 kV=0.23094010767585033 Vminpu=0.7 Vmaxpu=1.3 model=1 kW=3.378780904174954 kvar=0.6860907249775158 Phases=1
New Load.NMI_elem_75594189 bus1=3094774.3 kV=0.23094010767585033 Vminpu=0.7 Vmaxpu=1.3 model=1 kW=3.092110523507899 kvar=0.6278798214358234 Phases=1
New Load.NMI_elem_75594218 bus1=3096092.1 kV=0.23094010767585033 Vminpu=0.7 Vmaxpu=1.3 model=1 kW=7.612949568803914 kvar=1.5458753429155423 Phases=1
New Load.NMI_elem_75594219 bus1=3097071.2 kV=0.23094010767585033 Vminpu=0.7 Vmaxpu=1.3 model=1 kW=6.297502052532877 kvar=1.2787623321272181 Phases=1
New Load.NMI_elem_75594220 bus1=3096035.2 kV=0.23094010767585033 Vminpu=0.7 Vmaxpu=1.3 model=1 kW=0.6322932304612187 kvar=0.1283926165054028 Phases=1
New Load.NMI_elem_75594221 bus1=3100647.3 kV=0.23094010767585033 Vminpu=0.7 Vmaxpu=1.3 model=1 kW=3.0747716300880996 kvar=0.6243590089611232 Phases=1
New Load.NMI_elem_75594222 bus1=3095051.2 kV=0.23094010767585033 Vminpu=0.7 Vmaxpu=1.3 model=1 kW=1.511955342488748 kvar=0.3070156267841922 Phases=1
New Load.NMI_elem_75594223 bus1=3100648.1 kV=0.23094010767585033 Vminpu=0.7 Vmaxpu=1.3 model=1 kW=5.407436505239272 kvar=1.0980268142173069 Phases=1
New Load.NMI_elem_75594224 bus1=3100649.2 kV=0.23094010767585033 Vminpu=0.7 Vmaxpu=1.3 model=1 kW=3.7093767166798917 kvar=0.7532210678759788 Phases=1
New Load.NMI_elem_75594225 bus1=3096696.1 kV=0.23094010767585033 Vminpu=0.7 Vmaxpu=1.3 model=1 kW=1.090041240385672 kvar=0.22134231430854318 Phases=1
New Load.NMI_elem_75594226 bus1=3095052.1 kV=0.23094010767585033 Vminpu=0.7 Vmaxpu=1.3 model=1 kW=3.0031039246833404 kvar=0.6098062606909205 Phases=1
New Load.NMI_elem_75594689 bus1=3100684.3 kV=0.23094010767585033 Vminpu=0.7 Vmaxpu=1.3 model=1 kW=2.3881496427609186 kvar=0.4849344678526077 Phases=1
New Load.NMI_elem_75594706 bus1=3096660.1.2 kV=0.4 Vminpu=0.7 Vmaxpu=1.3 model=1 kW=1.4749656443995787 kvar=0.29950454823294936 Phases=2
New Load.NMI_elem_75598209 bus1=3100969.3 kV=0.23094010767585033 Vminpu=0.7 Vmaxpu=1.3 model=1 kW=1.4460674152079158 kvar=0.29363651251859574 Phases=1
New Load.NMI_elem_75598213 bus1=3100970.1 kV=0.23094010767585033 Vminpu=0.7 Vmaxpu=1.3 model=1 kW=1.7269581279890391 kvar=0.3506738044404615 Phases=1
New Load.NMI_elem_75598323 bus1=3100989.1 kV=0.23094010767585033 Vminpu=0.7 Vmaxpu=1.3 model=1 kW=1.2611187042860768 kvar=0.2560810749928215 Phases=1
New Load.NMI_elem_75598392 bus1=3101018.2 kV=0.23094010767585033 Vminpu=0.7 Vmaxpu=1.3 model=1 kW=2.9025382105629096 kvar=0.5893855214759236 Phases=1
New Load.NMI_elem_75598402 bus1=3101021.1 kV=0.23094010767585033 Vminpu=0.7 Vmaxpu=1.3 model=1 kW=3.5718210839943 kvar=0.7252892053401795 Phases=1
New Load.NMI_elem_75598465 bus1=3097403.2 kV=0.23094010767585033 Vminpu=0.7 Vmaxpu=1.3 model=1 kW=2.9106296794604165 kvar=0.591028564312813 Phases=1
New Load.NMI_elem_75598529 bus1=3101076.3 kV=0.23094010767585033 Vminpu=0.7 Vmaxpu=1.3 model=1 kW=3.3649098776295108 kvar=0.6832740929055794 Phases=1
New Load.NMI_elem_75598535 bus1=3101078.1 kV=0.23094010767585033 Vminpu=0.7 Vmaxpu=1.3 model=1 kW=1.7789750287244284 kvar=0.36123628663412155 Phases=1
New Load.NMI_elem_75598546 bus1=3101087.3 kV=0.23094010767585033 Vminpu=0.7 Vmaxpu=1.3 model=1 kW=2.1292215356607405 kvar=0.4323568732243475 Phases=1
New Load.NMI_elem_75598687 bus1=3101126.3 kV=0.23094010767585033 Vminpu=0.7 Vmaxpu=1.3 model=1 kW=2.739552215560012 kvar=0.5562898036285346 Phases=1
New Load.NMI_elem_75598882 bus1=3101173.3 kV=0.23094010767585033 Vminpu=0.7 Vmaxpu=1.3 model=1 kW=2.9695820934685266 kvar=0.6029993625424412 Phases=1
New Load.NMI_elem_75598918 bus1=3101180.2 kV=0.23094010767585033 Vminpu=0.7 Vmaxpu=1.3 model=1 kW=3.044717445271652 kvar=0.6182562464458485 Phases=1
New Load.NMI_elem_75599201 bus1=3101218.3 kV=0.23094010767585033 Vminpu=0.7 Vmaxpu=1.3 model=1 kW=1.7731953608384967 kvar=0.3600626750142949 Phases=1
New Load.NMI_elem_75599346 bus1=3100460.1.2.3 kV=0.4 Vminpu=0.7 Vmaxpu=1.3 model=1 kW=1.9315575333422523 kvar=0.39221948565799863 Phases=3
New Load.NMI_elem_75599471 bus1=3101229.1 kV=0.23094010767585033 Vminpu=0.7 Vmaxpu=1.3 model=1 kW=2.5014306482779975 kvar=0.507937157108179 Phases=1
New Load.NMI_elem_75599761 bus1=3101256.2 kV=0.23094010767585033 Vminpu=0.7 Vmaxpu=1.3 model=1 kW=2.7060301638692073 kvar=0.5494828607104961 Phases=1
New Load.NMI_elem_75599842 bus1=3095060.1 kV=0.23094010767585033 Vminpu=0.7 Vmaxpu=1.3 model=1 kW=2.9748177109064446 kvar=0.6040625000069768 Phases=1
